@<TRIPOS>MOLECULE
*****
 53 54 0 0 0
SMALL
GASTEIGER

@<TRIPOS>ATOM
      1 C          -7.7319    4.0398   -1.4262 C.3     1  LIG1       -0.0357
      2 C          -7.6855    4.0054    0.1141 C.3     1  LIG1        0.0864
      3 H          -8.6307    4.5563   -1.7705 H       1  LIG1        0.0256
      4 H          -7.7364    3.0271   -1.8363 H       1  LIG1        0.0256
      5 H          -6.8639    4.5695   -1.8255 H       1  LIG1        0.0256
      6 O          -8.8988    3.3732    0.6011 O.3     1  LIG1       -0.3887
      7 H          -9.7364    3.8168    0.2931 H       1  LIG1        0.2099
      8 C          -6.4106    3.2492    0.6184 C.3     1  LIG1        0.1151
      9 H          -7.6506    5.0326    0.4876 H       1  LIG1        0.0624
     10 O          -5.1704    3.8936    0.1613 O.3     1  LIG1       -0.4894
     11 H          -6.4274    2.2212    0.2452 H       1  LIG1        0.0722
     12 H          -6.4114    3.2296    1.7117 H       1  LIG1        0.0722
     13 C          -3.8821    3.3694    0.3454 C.ar    1  LIG1        0.1206
     14 C          -2.8292    3.8263   -0.4547 C.ar    1  LIG1       -0.0197
     15 C          -1.5485    3.2563   -0.3722 C.ar    1  LIG1       -0.0543
     16 C          -1.2691    2.2111    0.5201 C.ar    1  LIG1       -0.0372
     17 C          -2.3210    1.8138    1.3704 C.ar    1  LIG1       -0.0543
     18 C          -3.5995    2.3775    1.2859 C.ar    1  LIG1       -0.0197
     19 H          -4.3817    2.0048    1.9412 H       1  LIG1        0.0654
     20 H          -0.7794    3.5902   -1.0645 H       1  LIG1        0.0622
     21 H          -3.0187    4.6052   -1.1892 H       1  LIG1        0.0654
     22 H          -2.1914    1.0083    2.0850 H       1  LIG1        0.0622
     23 C           0.0354    1.3614    0.3655 C.3     1  LIG1        0.0151
     24 C          -0.1624    0.5771   -0.9626 C.3     1  LIG1       -0.0517
     25 H          -0.1159    1.2465   -1.8250 H       1  LIG1        0.0241
     26 H          -1.1385    0.0849   -0.9783 H       1  LIG1        0.0241
     27 H           0.5927   -0.2028   -1.0888 H       1  LIG1        0.0241
     28 C           0.1538    0.2688    1.4658 C.3     1  LIG1       -0.0517
     29 H          -0.6647   -0.4530    1.4095 H       1  LIG1        0.0241
     30 H           0.1544    0.7143    2.4635 H       1  LIG1        0.0241
     31 H           1.0854   -0.2922    1.3535 H       1  LIG1        0.0241
     32 C           1.4075    2.1119    0.4053 C.ar    1  LIG1       -0.0372
     33 C           1.7639    2.8866    1.5186 C.ar    1  LIG1       -0.0543
     34 C           3.0867    3.3119    1.7220 C.ar    1  LIG1       -0.0197
     35 C           4.1059    2.9735    0.8253 C.ar    1  LIG1        0.1206
     36 C           3.7513    2.2622   -0.3221 C.ar    1  LIG1       -0.0197
     37 C           2.4313    1.8431   -0.5258 C.ar    1  LIG1       -0.0543
     38 H           1.0184    3.1082    2.2784 H       1  LIG1        0.0622
     39 H           3.3329    3.8742    2.6193 H       1  LIG1        0.0654
     40 H           2.2422    1.2456   -1.4110 H       1  LIG1        0.0622
     41 H           4.5064    1.9932   -1.0554 H       1  LIG1        0.0654
     42 O           5.4314    3.3296    1.1162 O.3     1  LIG1       -0.4894
     43 C           6.6183    2.7123    0.5058 C.3     1  LIG1        0.1151
     44 C           7.9465    3.2173    1.1633 C.3     1  LIG1        0.0864
     45 H           6.6284    2.9545   -0.5604 H       1  LIG1        0.0722
     46 H           6.5458    1.6271    0.6224 H       1  LIG1        0.0722
     47 C           7.9801    2.8787    2.6666 C.3     1  LIG1       -0.0357
     48 H           8.9151    3.2213    3.1153 H       1  LIG1        0.0256
     49 H           7.8962    1.8006    2.8228 H       1  LIG1        0.0256
     50 H           7.1551    3.3679    3.1897 H       1  LIG1        0.0256
     51 O           9.1079    2.6212    0.5271 O.3     1  LIG1       -0.3887
     52 H           9.9763    2.9072    0.9236 H       1  LIG1        0.2099
     53 H           8.0009    4.3033    1.0465 H       1  LIG1        0.0624
@<TRIPOS>BOND
     1     1     2    1
     2     1     3    1
     3     1     4    1
     4     1     5    1
     5     6     2    1
     6     6     7    1
     7     8     2    1
     8     2     9    1
     9    10     8    1
    10     8    11    1
    11     8    12    1
    12    13    10    1
    13    14    13   ar
    14    15    14   ar
    15    16    15   ar
    16    17    16   ar
    17    18    17   ar
    18    18    13   ar
    19    18    19    1
    20    15    20    1
    21    14    21    1
    22    17    22    1
    23    23    16    1
    24    24    23    1
    25    24    25    1
    26    24    26    1
    27    24    27    1
    28    28    23    1
    29    28    29    1
    30    28    30    1
    31    28    31    1
    32    32    23    1
    33    33    32   ar
    34    34    33   ar
    35    35    34   ar
    36    36    35   ar
    37    37    36   ar
    38    32    37   ar
    39    33    38    1
    40    34    39    1
    41    37    40    1
    42    36    41    1
    43    42    35    1
    44    43    42    1
    45    44    43    1
    46    43    45    1
    47    43    46    1
    48    47    44    1
    49    47    48    1
    50    47    49    1
    51    47    50    1
    52    51    44    1
    53    51    52    1
    54    44    53    1
