@<TRIPOS>MOLECULE
system.pdb
 292 299 0 0 0
SMALL
GASTEIGER

@<TRIPOS>ATOM
      1  C		    37.96    16.22    28.77	C.3   	  1	  1LIG  -0.03570
      2  H		    38.91    15.71    28.63	H     	  1	  1LIG   0.02560
      3  H		    37.33    15.98    27.91	H     	  1	  1LIG   0.02560
      4  H		    37.49     15.8    29.66	H     	  1	  1LIG   0.02560
      5  C		    38.16    17.73    28.91	C.3   	  1	  1LIG   0.08640
      6  H		    38.81    17.92    29.77	H     	  1	  1LIG   0.06240
      7  O		    38.83    18.22    27.76	O.3   	  1	  1LIG  -0.38870
      8  H		     38.4    17.87    26.99	H     	  1	  1LIG   0.20990
      9  C		    36.85    18.51    29.09	C.3   	  1	  1LIG   0.11510
     10  H		    36.19    18.35    28.23	H     	  1	  1LIG   0.07220
     11  H		    37.08    19.57    29.14	H     	  1	  1LIG   0.07220
     12  O		    36.21    18.08    30.29	O.3   	  1	  1LIG  -0.48840
     13  C		    34.99    18.63    30.61	C.ar  	  1	  1LIG   0.12060
     14  C		    34.21    17.95    31.56	C.ar  	  1	  1LIG  -0.01970
     15  H		    34.63    17.12     32.1	H     	  1	  1LIG   0.06540
     16  C		    32.92    18.41    31.89	C.ar  	  1	  1LIG  -0.05430
     17  H		    32.38    17.92    32.69	H     	  1	  1LIG   0.06220
     18  C		    32.36    19.55    31.26	C.ar  	  1	  1LIG  -0.03720
     19  C		    33.19    20.28    30.37	C.ar  	  1	  1LIG  -0.05430
     20  H		    32.98    21.32    30.19	H     	  1	  1LIG   0.06220
     21  C		    34.48    19.82    30.03	C.ar  	  1	  1LIG  -0.01970
     22  H		    35.14    20.52    29.55	H     	  1	  1LIG   0.06540
     23  C		    30.83    19.68    31.17	C.3   	  1	  1LIG   0.01510
     24  C		     30.3    18.51    30.31	C.3   	  1	  1LIG  -0.05170
     25  H		    30.81    18.47    29.34	H     	  1	  1LIG   0.02410
     26  H		    29.23    18.61     30.1	H     	  1	  1LIG   0.02410
     27  H		    30.46    17.55    30.79	H     	  1	  1LIG   0.02410
     28  C		    30.37    20.99    30.47	C.3   	  1	  1LIG  -0.05170
     29  H		    30.65     21.0    29.42	H     	  1	  1LIG   0.02410
     30  H		    30.81    21.87    30.94	H     	  1	  1LIG   0.02410
     31  H		    29.29     21.1    30.53	H     	  1	  1LIG   0.02410
     32  C		    30.28    19.68     32.6	C.ar  	  1	  1LIG  -0.03720
     33  C		    30.72    20.67    33.51	C.ar  	  1	  1LIG  -0.05430
     34  H		    31.69    21.13    33.39	H     	  1	  1LIG   0.06220
     35  C		    29.94    21.03    34.63	C.ar  	  1	  1LIG  -0.01970
     36  H		    30.29    21.81     35.3	H     	  1	  1LIG   0.06540
     37  C		    28.71     20.4    34.89	C.ar  	  1	  1LIG   0.12060
     38  C		    28.28    19.38    34.01	C.ar  	  1	  1LIG  -0.01970
     39  H		    27.47    18.72    34.29	H     	  1	  1LIG   0.06540
     40  C		    29.06    19.01     32.9	C.ar  	  1	  1LIG  -0.05430
     41  H		    28.87    18.05    32.45	H     	  1	  1LIG   0.06220
     42  O		    27.99    20.81    35.99	O.3   	  1	  1LIG  -0.48940
     43  C		    26.59    20.57    35.99	C.3   	  1	  1LIG   0.11510
     44  H		     26.4     19.5    36.07	H     	  1	  1LIG   0.07220
     45  H		    26.13    20.93    35.07	H     	  1	  1LIG   0.07220
     46  C		    25.97    21.26    37.22	C.3   	  1	  1LIG   0.08640
     47  H		    26.51    20.96    38.11	H     	  1	  1LIG   0.06240
     48  C		    25.99    22.79    37.11	C.3   	  1	  1LIG  -0.03570
     49  H		    25.45    23.14    36.23	H     	  1	  1LIG   0.02560
     50  H		    27.02    23.16    37.04	H     	  1	  1LIG   0.02560
     51  H		    25.54    23.25    37.99	H     	  1	  1LIG   0.02560
     52  O		    24.63    20.84    37.35	O.3   	  1	  1LIG  -0.38870
     53  H		    24.12    21.21    36.65	H     	  1	  1LIG   0.20990
     54  N		    19.81    20.16     9.45	N.3   	  1	  1LIG  -0.32720
     55  H		     20.4     20.0     8.65	H     	  1	  1LIG   0.11850
     56  H		    18.89    20.38     9.08	H     	  1	  1LIG   0.11850
     57  C		    20.32    21.26    10.25	C.3   	  1	  1LIG   0.00490
     58  H		     21.4    21.13    10.33	H     	  1	  1LIG   0.04580
     59  C		    20.02    22.61     9.56	C.3   	  1	  1LIG  -0.03750
     60  H		     20.6    22.67     8.64	H     	  1	  1LIG   0.02800
     61  H		    18.97    22.65     9.26	H     	  1	  1LIG   0.02800
     62  C		    20.36    23.83    10.46	C.3   	  1	  1LIG  -0.04880
     63  H		    20.02    24.73     9.94	H     	  1	  1LIG   0.02680
     64  H		    21.44    23.91    10.52	H     	  1	  1LIG   0.02680
     65  C		    19.75    23.78    11.89	C.3   	  1	  1LIG  -0.04070
     66  H		    18.67    23.83    11.79	H     	  1	  1LIG   0.03010
     67  C		    20.11    22.41    12.52	C.3   	  1	  1LIG  -0.04880
     68  H		    19.66    22.32    13.51	H     	  1	  1LIG   0.02680
     69  H		    21.19    22.36    12.67	H     	  1	  1LIG   0.02680
     70  C		    19.69    21.21    11.65	C.3   	  1	  1LIG  -0.03750
     71  H		    19.98    20.29    12.15	H     	  1	  1LIG   0.02800
     72  H		     18.6    21.18    11.57	H     	  1	  1LIG   0.02800
     73  C		    20.23    24.98    12.79	C.3   	  1	  1LIG  -0.04740
     74  H		    20.69    25.71    12.12	H     	  1	  1LIG   0.02710
     75  H		    21.06    24.64    13.41	H     	  1	  1LIG   0.02710
     76  C		     19.2    25.75    13.69	C.3   	  1	  1LIG  -0.04070
     77  H		    18.38    26.04    13.03	H     	  1	  1LIG   0.03010
     78  C		    19.81    27.07    14.26	C.3   	  1	  1LIG  -0.04880
     79  H		    19.46    27.91    13.65	H     	  1	  1LIG   0.02680
     80  H		    20.89    27.05    14.11	H     	  1	  1LIG   0.02680
     81  C		    19.55    27.39    15.77	C.3   	  1	  1LIG  -0.03720
     82  H		    19.79    28.45     15.9	H     	  1	  1LIG   0.02800
     83  H		    20.28    26.86    16.38	H     	  1	  1LIG   0.02800
     84  C		    18.12    27.12    16.31	C.3   	  1	  1LIG   0.01090
     85  H		    17.48    27.93    15.94	H     	  1	  1LIG   0.04610
     86  C		    17.58    25.78    15.71	C.3   	  1	  1LIG  -0.03720
     87  H		     17.2    25.14    16.51	H     	  1	  1LIG   0.02800
     88  H		    16.72    26.01    15.09	H     	  1	  1LIG   0.02800
     89  C		    18.58    24.95    14.85	C.3   	  1	  1LIG  -0.04880
     90  H		    19.38    24.55    15.48	H     	  1	  1LIG   0.02680
     91  H		    18.07    24.08    14.44	H     	  1	  1LIG   0.02680
     92  N		    18.03    27.13     17.8	N.3   	  1	  1LIG  -0.27700
     93  H		    17.52    26.32    18.12	H     	  1	  1LIG   0.12570
     94  C		    10.18    29.22    32.05	C.3   	  2	  2LIG  -0.03570
     95  H		    10.81    28.38    31.79	H     	  2	  2LIG   0.02560
     96  H		     9.35    28.84    32.66	H     	  2	  2LIG   0.02560
     97  H		    10.75     29.9    32.68	H     	  2	  2LIG   0.02560
     98  C		     9.64    29.93    30.79	C.3   	  2	  2LIG   0.08640
     99  H		     8.96    29.26    30.27	H     	  2	  2LIG   0.06240
    100  O		     8.89    31.04    31.24	O.3   	  2	  2LIG  -0.38870
    101  H		     8.53    30.85    32.09	H     	  2	  2LIG   0.20990
    102  C		    10.73    30.42     29.8	C.3   	  2	  2LIG   0.11510
    103  H		    10.28    31.19    29.18	H     	  2	  2LIG   0.07220
    104  H		    11.55    30.89    30.35	H     	  2	  2LIG   0.07220
    105  O		    11.23    29.35    28.99	O.3   	  2	  2LIG  -0.48940
    106  C		    12.15    29.63    27.99	C.ar  	  2	  2LIG   0.12060
    107  C		    12.97    28.58    27.52	C.ar  	  2	  2LIG  -0.01970
    108  H		    13.08     27.7    28.14	H     	  2	  2LIG   0.06540
    109  C		    13.75    28.71    26.34	C.ar  	  2	  2LIG  -0.05430
    110  H		    14.41    27.89    26.08	H     	  2	  2LIG   0.06220
    111  C		    13.79    29.91    25.58	C.ar  	  2	  2LIG  -0.03720
    112  C		    12.89    30.93    26.03	C.ar  	  2	  2LIG  -0.05430
    113  H		    12.62    31.73    25.36	H     	  2	  2LIG   0.06220
    114  C		    12.14    30.82    27.22	C.ar  	  2	  2LIG  -0.01970
    115  H		    11.75    31.73    27.65	H     	  2	  2LIG   0.06540
    116  C		    15.13    30.32    24.88	C.3   	  2	  2LIG   0.01510
    117  C		    16.22    30.24    25.98	C.3   	  2	  2LIG  -0.05170
    118  H		    17.13    30.77     25.7	H     	  2	  2LIG   0.02410
    119  H		     16.5    29.21    26.19	H     	  2	  2LIG   0.02410
    120  H		    15.88    30.68    26.92	H     	  2	  2LIG   0.02410
    121  C		     15.1    31.82    24.47	C.3   	  2	  2LIG  -0.05170
    122  H		    14.28    32.03    23.78	H     	  2	  2LIG   0.02410
    123  H		    16.02     32.1    23.96	H     	  2	  2LIG   0.02410
    124  H		     15.0    32.47    25.33	H     	  2	  2LIG   0.02410
    125  C		    15.52    29.49     23.6	C.ar  	  2	  2LIG  -0.03720
    126  C		    14.67     29.4    22.47	C.ar  	  2	  2LIG  -0.05430
    127  H		    13.64     29.7    22.57	H     	  2	  2LIG   0.06220
    128  C		    15.15    29.08    21.16	C.ar  	  2	  2LIG  -0.01960
    129  H		    14.45    29.04    20.35	H     	  2	  2LIG   0.06540
    130  C		    16.53    28.85    20.87	C.ar  	  2	  2LIG   0.12290
    131  C		    17.37    28.91    22.01	C.ar  	  2	  2LIG  -0.01960
    132  H		    18.37    28.52    21.94	H     	  2	  2LIG   0.06540
    133  C		    16.89    29.22    23.31	C.ar  	  2	  2LIG  -0.05430
    134  H		    17.61    29.16    24.12	H     	  2	  2LIG   0.06220
    135  O		    16.88    28.02    19.79	O.3   	  2	  2LIG  -0.47120
    136  C		    17.58    28.36    18.57	C.3   	  2	  2LIG   0.17760
    137  H		    16.85    28.89    17.96	H     	  2	  2LIG   0.09350
    138  C		    18.81    29.31    18.75	C.3   	  2	  2LIG   0.10290
    139  H		    19.48    29.18    17.91	H     	  2	  2LIG   0.06420
    140  C		    18.45     30.8    18.79	C.3   	  2	  2LIG  -0.03410
    141  H		    19.29     31.4    19.14	H     	  2	  2LIG   0.02560
    142  H		    17.59     31.0    19.43	H     	  2	  2LIG   0.02560
    143  H		     18.2    31.15    17.79	H     	  2	  2LIG   0.02560
    144  O		    19.59    28.97    19.88	O.3   	  2	  2LIG  -0.38700
    145  H		    20.38    29.48    19.87	H     	  2	  2LIG   0.21000
    146  N		    44.38    36.13    10.38	N.3   	  2	  2LIG  -0.32720
    147  H		    44.87    36.69     9.71	H     	  2	  2LIG   0.11850
    148  H		    44.85    35.24    10.41	H     	  2	  2LIG   0.11850
    149  C		    43.01    35.94     9.95	C.3   	  2	  2LIG   0.00490
    150  H		    43.03     35.5     8.96	H     	  2	  2LIG   0.04580
    151  C		    42.29    34.98    10.92	C.3   	  2	  2LIG  -0.03750
    152  H		     42.4    35.33    11.95	H     	  2	  2LIG   0.02800
    153  H		    42.76     34.0    10.88	H     	  2	  2LIG   0.02800
    154  C		    40.79    34.84    10.59	C.3   	  2	  2LIG  -0.04880
    155  H		    40.68    34.32     9.64	H     	  2	  2LIG   0.02680
    156  H		    40.32    34.22    11.34	H     	  2	  2LIG   0.02680
    157  C		    40.08    36.21    10.52	C.3   	  2	  2LIG  -0.04070
    158  H		    40.16    36.66    11.51	H     	  2	  2LIG   0.03010
    159  C		    40.81    37.14     9.53	C.3   	  2	  2LIG  -0.04880
    160  H		    40.72    36.76     8.52	H     	  2	  2LIG   0.02680
    161  H		    40.34    38.13     9.52	H     	  2	  2LIG   0.02680
    162  C		     42.3     37.3     9.89	C.3   	  2	  2LIG  -0.03750
    163  H		    42.39    37.82    10.84	H     	  2	  2LIG   0.02800
    164  H		    42.78    37.94     9.14	H     	  2	  2LIG   0.02800
    165  C		    38.58    36.06    10.16	C.3   	  2	  2LIG  -0.04740
    166  H		    38.31    35.01    10.15	H     	  2	  2LIG   0.02710
    167  H		    38.41    36.41     9.14	H     	  2	  2LIG   0.02710
    168  C		    37.62     36.8    11.11	C.3   	  2	  2LIG  -0.04070
    169  H		    37.85    36.48    12.13	H     	  2	  2LIG   0.03010
    170  C		    36.15    36.39    10.83	C.3   	  2	  2LIG  -0.04880
    171  H		    35.95    35.44    11.32	H     	  2	  2LIG   0.02680
    172  H		    36.02     36.2     9.76	H     	  2	  2LIG   0.02680
    173  C		     35.1    37.42    11.27	C.3   	  2	  2LIG  -0.03750
    174  H		    34.19    36.89    11.59	H     	  2	  2LIG   0.02800
    175  H		    34.81    38.03    10.42	H     	  2	  2LIG   0.02800
    176  C		     35.6    38.32    12.42	C.3   	  2	  2LIG   0.00490
    177  H		    35.82     37.7    13.29	H     	  2	  2LIG   0.04580
    178  C		    36.87     39.1    12.02	C.3   	  2	  2LIG  -0.03750
    179  H		     36.6    40.06    11.57	H     	  2	  2LIG   0.02800
    180  H		    37.43    39.35    12.93	H     	  2	  2LIG   0.02800
    181  C		    37.79    38.34    11.05	C.3   	  2	  2LIG  -0.04880
    182  H		    37.61    38.68    10.03	H     	  2	  2LIG   0.02680
    183  H		    38.82     38.6    11.28	H     	  2	  2LIG   0.02680
    184  N		    34.55    39.24    12.79	N.3   	  2	  2LIG  -0.32720
    185  H		    34.38     39.9    12.04	H     	  2	  2LIG   0.11850
    186  H		    34.85    39.79    13.59	H     	  2	  2LIG   0.11850
    187  C		    37.91     20.2    32.11	C.3   	  3	  3LIG  -0.03570
    188  H		    38.22    19.26    31.65	H     	  3	  3LIG   0.02560
    189  H		    38.81     20.8    32.25	H     	  3	  3LIG   0.02560
    190  H		    37.27    20.71     31.4	H     	  3	  3LIG   0.02560
    191  C		    37.18    19.94    33.43	C.3   	  3	  3LIG   0.08640
    192  H		    36.26    19.39    33.23	H     	  3	  3LIG   0.06240
    193  O		     38.0    19.14    34.25	O.3   	  3	  3LIG  -0.38870
    194  H		    38.89    19.43    34.17	H     	  3	  3LIG   0.20990
    195  C		    36.84    21.24    34.18	C.3   	  3	  3LIG   0.11510
    196  H		    37.73    21.87    34.25	H     	  3	  3LIG   0.07220
    197  H		    36.53     21.0    35.19	H     	  3	  3LIG   0.07220
    198  O		    35.78    21.92    33.51	O.3   	  3	  3LIG  -0.48940
    199  C		    35.63    23.26    33.82	C.ar  	  3	  3LIG   0.12060
    200  C		     35.0    24.08    32.87	C.ar  	  3	  3LIG  -0.01970
    201  H		    34.74    23.68     31.9	H     	  3	  3LIG   0.06540
    202  C		    34.63     25.4     33.2	C.ar  	  3	  3LIG  -0.05430
    203  H		    34.07    25.98    32.48	H     	  3	  3LIG   0.06220
    204  C		    34.89    25.94    34.48	C.ar  	  3	  3LIG  -0.03720
    205  C		    35.43    25.07    35.46	C.ar  	  3	  3LIG  -0.05430
    206  H		     35.3     25.3    36.51	H     	  3	  3LIG   0.06220
    207  C		     35.8    23.75    35.14	C.ar  	  3	  3LIG  -0.01970
    208  H		    36.11     23.1    35.93	H     	  3	  3LIG   0.06540
    209  C		    35.04    27.46    34.64	C.3   	  3	  3LIG   0.01510
    210  C		    36.24    27.92    33.78	C.3   	  3	  3LIG  -0.05170
    211  H		    36.06    27.78    32.72	H     	  3	  3LIG   0.02410
    212  H		    37.14    27.35    34.03	H     	  3	  3LIG   0.02410
    213  H		    36.48    28.97    33.94	H     	  3	  3LIG   0.02410
    214  C		    35.34     27.9    36.09	C.3   	  3	  3LIG  -0.05170
    215  H		    35.33    28.99    36.18	H     	  3	  3LIG   0.02410
    216  H		    36.32    27.56    36.42	H     	  3	  3LIG   0.02410
    217  H		     34.6    27.51     36.8	H     	  3	  3LIG   0.02410
    218  C		    33.71     28.1    34.21	C.ar  	  3	  3LIG  -0.03720
    219  C		    32.52    27.73    34.88	C.ar  	  3	  3LIG  -0.05430
    220  H		    32.45    26.77    35.37	H     	  3	  3LIG   0.06220
    221  C		     31.4    28.58    34.92	C.ar  	  3	  3LIG  -0.01970
    222  H		    30.52    28.29    35.46	H     	  3	  3LIG   0.06540
    223  C		    31.43    29.83    34.26	C.ar  	  3	  3LIG   0.12060
    224  C		    32.59    30.19    33.54	C.ar  	  3	  3LIG  -0.01970
    225  H		    32.58    31.03    32.86	H     	  3	  3LIG   0.06540
    226  C		    33.71    29.33     33.5	C.ar  	  3	  3LIG  -0.05430
    227  H		    34.42    29.48    32.71	H     	  3	  3LIG   0.06220
    228  O		    30.32    30.64    34.38	O.3   	  3	  3LIG  -0.48940
    229  C		    30.46    32.02    34.08	C.3   	  3	  3LIG   0.11510
    230  H		    30.68    32.15    33.02	H     	  3	  3LIG   0.07220
    231  H		    31.29    32.45    34.65	H     	  3	  3LIG   0.07220
    232  C		    29.15    32.74    34.41	C.3   	  3	  3LIG   0.08640
    233  H		    28.34     32.3    33.83	H     	  3	  3LIG   0.06240
    234  C		    28.78    32.68     35.9	C.3   	  3	  3LIG  -0.03570
    235  H		    29.56    33.14    36.52	H     	  3	  3LIG   0.02560
    236  H		    28.65    31.65    36.23	H     	  3	  3LIG   0.02560
    237  H		    27.85    33.21     36.1	H     	  3	  3LIG   0.02560
    238  O		    29.26     34.1    34.03	O.3   	  3	  3LIG  -0.38870
    239  H		    29.84    34.54    34.63	H     	  3	  3LIG   0.20990
    240  C		     5.73    18.18    27.76	C.3   	  4	  4LIG  -0.03570
    241  H		     4.81    18.74    27.94	H     	  4	  4LIG   0.02560
    242  H		     5.91    18.18    26.68	H     	  4	  4LIG   0.02560
    243  H		     6.55    18.71    28.23	H     	  4	  4LIG   0.02560
    244  C		     5.61    16.75     28.3	C.3   	  4	  4LIG   0.08640
    245  H		     5.42    16.79    29.37	H     	  4	  4LIG   0.06240
    246  O		      4.5    16.12    27.69	O.3   	  4	  4LIG  -0.38870
    247  H		     4.54    16.27    26.76	H     	  4	  4LIG   0.20990
    248  C		     6.86    15.89    28.05	C.3   	  4	  4LIG   0.11510
    249  H		     7.07    15.82    26.98	H     	  4	  4LIG   0.07220
    250  H		     6.68    14.89    28.43	H     	  4	  4LIG   0.07220
    251  O		     7.97    16.48    28.73	O.3   	  4	  4LIG  -0.48940
    252  C		     9.21    15.92    28.54	C.ar  	  4	  4LIG   0.12060
    253  C		    10.33     16.7    28.88	C.ar  	  4	  4LIG  -0.01970
    254  H		    10.19    17.68    29.32	H     	  4	  4LIG   0.06540
    255  C		    11.64    16.23    28.66	C.ar  	  4	  4LIG  -0.05430
    256  H		    12.48    16.83    28.98	H     	  4	  4LIG   0.06220
    257  C		    11.87    14.96    28.08	C.ar  	  4	  4LIG  -0.03720
    258  C		    10.74    14.15    27.79	C.ar  	  4	  4LIG  -0.05430
    259  H		    10.86    13.09     27.7	H     	  4	  4LIG   0.06220
    260  C		     9.43    14.63     28.0	C.ar  	  4	  4LIG  -0.01970
    261  H		     8.62    13.93    27.92	H     	  4	  4LIG   0.06540
    262  C		     13.2     14.7    27.36	C.3   	  4	  4LIG   0.01510
    263  C		    13.29    15.65    26.14	C.3   	  4	  4LIG  -0.05170
    264  H		    12.41    15.55    25.51	H     	  4	  4LIG   0.02410
    265  H		    14.16    15.43    25.52	H     	  4	  4LIG   0.02410
    266  H		    13.35    16.69    26.45	H     	  4	  4LIG   0.02410
    267  C		    13.32    13.26     26.8	C.3   	  4	  4LIG  -0.05170
    268  H		    12.62    13.07    25.99	H     	  4	  4LIG   0.02410
    269  H		    13.14    12.51    27.58	H     	  4	  4LIG   0.02410
    270  H		    14.32    13.07    26.41	H     	  4	  4LIG   0.02410
    271  C		    14.33    14.91    28.38	C.ar  	  4	  4LIG  -0.03720
    272  C		    14.34    14.14    29.57	C.ar  	  4	  4LIG  -0.05430
    273  H		    13.42    13.74    29.96	H     	  4	  4LIG   0.06220
    274  C		    15.53    13.92    30.29	C.ar  	  4	  4LIG  -0.01970
    275  H		    15.51    13.32    31.18	H     	  4	  4LIG   0.06540
    276  C		    16.75    14.48    29.85	C.ar  	  4	  4LIG   0.12060
    277  C		    16.74    15.29    28.69	C.ar  	  4	  4LIG  -0.01970
    278  H		    17.59    15.91    28.45	H     	  4	  4LIG   0.06540
    279  C		    15.55    15.52    27.98	C.ar  	  4	  4LIG  -0.05430
    280  H		    15.53    16.37    27.32	H     	  4	  4LIG   0.06220
    281  O		    17.88    14.17    30.57	O.3   	  4	  4LIG  -0.48940
    282  C		    19.15    14.39    29.95	C.3   	  4	  4LIG   0.11510
    283  H		     19.3    15.46    29.79	H     	  4	  4LIG   0.07220
    284  H		    19.19     13.9    28.98	H     	  4	  4LIG   0.07220
    285  C		    20.26    13.87    30.88	C.3   	  4	  4LIG   0.08640
    286  H		     20.2    14.39    31.84	H     	  4	  4LIG   0.06240
    287  C		    20.17    12.36    31.13	C.3   	  4	  4LIG  -0.03570
    288  H		    20.25     11.8    30.19	H     	  4	  4LIG   0.02560
    289  H		    19.23    12.09     31.6	H     	  4	  4LIG   0.02560
    290  H		    20.98    12.03    31.78	H     	  4	  4LIG   0.02560
    291  O		    21.51    14.17    30.31	O.3   	  4	  4LIG  -0.38870
    292  H		    21.64    13.61    29.56	H     	  4	  4LIG   0.20990
@<TRIPOS>BOND
      1    59    62    1
      2    59    57    1
      3    62    65    1
      4    54    57    1
      5    57    70    1
      6   159   162    1
      7   159   157    1
      8   162   149    1
      9   149   146    1
     10   149   151    1
     11    65    73    1
     12    65    67    1
     13   165   157    1
     14   165   168    1
     15    73    76    1
     16   157   154    1
     17   154   151    1
     18    70    67    1
     19   170   168    1
     20   170   173    1
     21   181   168    1
     22   181   178    1
     23    76    78    1
     24    76    89    1
     25   173   176    1
     26    78    81    1
     27   178   176    1
     28    81    84    1
     29    89    86    1
     30    84    86    1
     31    84    92    1
     32   176   184    1
     33   140   138    1
     34   144   138    1
     35   138   136    1
     36   136   135    1
     37   135   130   ar
     38   130   128   ar
     39   130   131   ar
     40   128   126   ar
     41   131   133   ar
     42   126   125   ar
     43   133   125   ar
     44   125   116   ar
     45   263   262    1
     46   121   116    1
     47   267   262    1
     48   116   111   ar
     49   116   117    1
     50   262   257   ar
     51   262   271   ar
     52   111   112   ar
     53   111   109   ar
     54   246   244    1
     55     7     5    1
     56   240   244    1
     57   258   260   ar
     58   258   257   ar
     59   112   114   ar
     60   260   252   ar
     61   248   244    1
     62   248   251    1
     63   279   271   ar
     64   279   277   ar
     65   257   255   ar
     66   109   107   ar
     67   271   272   ar
     68   252   251   ar
     69   252   253   ar
     70   255   253   ar
     71   277   276   ar
     72     1     5    1
     73   114   106   ar
     74     5     9    1
     75   107   106   ar
     76     9    12    1
     77   106   105   ar
     78   272   274   ar
     79   276   274   ar
     80   276   281   ar
     81   282   281    1
     82   282   285    1
     83    21    19   ar
     84    21    13   ar
     85    12    13   ar
     86   105   102    1
     87    19    18   ar
     88    24    23    1
     89   291   285    1
     90    28    23    1
     91    13    14   ar
     92   285   287    1
     93   102    98    1
     94    18    23   ar
     95    18    16   ar
     96    23    32   ar
     97    14    16   ar
     98   187   191    1
     99    98   100    1
    100    98    94    1
    101    32    40   ar
    102    32    33   ar
    103   200   202   ar
    104   200   199   ar
    105    40    38   ar
    106   202   204   ar
    107   191   193    1
    108   191   195    1
    109   198   199   ar
    110   198   195    1
    111    33    35   ar
    112   224   226   ar
    113   224   223   ar
    114   226   218   ar
    115   210   209    1
    116   199   207   ar
    117   229   228    1
    118   229   232    1
    119    38    37   ar
    120   238   232    1
    121   223   228   ar
    122   223   221   ar
    123   218   209   ar
    124   218   219   ar
    125   204   209   ar
    126   204   205   ar
    127   232   234    1
    128   209   214    1
    129    35    37   ar
    130    37    42   ar
    131   221   219   ar
    132   207   205   ar
    133    42    43    1
    134    43    46    1
    135    48    46    1
    136    46    52    1
    137   136    92    1
    138     1     2    1
    139     1     3    1
    140     1     4    1
    141     5     6    1
    142     7     8    1
    143     9    10    1
    144     9    11    1
    145    14    15   ar
    146    16    17   ar
    147    19    20   ar
    148    21    22   ar
    149    24    25    1
    150    24    26    1
    151    24    27    1
    152    28    29    1
    153    28    30    1
    154    28    31    1
    155    33    34   ar
    156    35    36   ar
    157    38    39   ar
    158    40    41   ar
    159    43    44    1
    160    43    45    1
    161    46    47    1
    162    48    49    1
    163    48    50    1
    164    48    51    1
    165    52    53    1
    166    94    95    1
    167    94    96    1
    168    94    97    1
    169    98    99    1
    170   100   101    1
    171   102   103    1
    172   102   104    1
    173   107   108   ar
    174   109   110   ar
    175   112   113   ar
    176   114   115   ar
    177   117   118    1
    178   117   119    1
    179   117   120    1
    180   121   122    1
    181   121   123    1
    182   121   124    1
    183   126   127   ar
    184   128   129   ar
    185   131   132   ar
    186   133   134   ar
    187   136   137    1
    188   138   139    1
    189   140   141    1
    190   140   142    1
    191   140   143    1
    192   144   145    1
    193   187   188    1
    194   187   189    1
    195   187   190    1
    196   191   192    1
    197   193   194    1
    198   195   196    1
    199   195   197    1
    200   200   201   ar
    201   202   203   ar
    202   205   206   ar
    203   207   208   ar
    204   210   211    1
    205   210   212    1
    206   210   213    1
    207   214   215    1
    208   214   216    1
    209   214   217    1
    210   219   220   ar
    211   221   222   ar
    212   224   225   ar
    213   226   227   ar
    214   229   230    1
    215   229   231    1
    216   232   233    1
    217   234   235    1
    218   234   236    1
    219   234   237    1
    220   238   239    1
    221   240   241    1
    222   240   242    1
    223   240   243    1
    224   244   245    1
    225   246   247    1
    226   248   249    1
    227   248   250    1
    228   253   254   ar
    229   255   256   ar
    230   258   259   ar
    231   260   261   ar
    232   263   264    1
    233   263   265    1
    234   263   266    1
    235   267   268    1
    236   267   269    1
    237   267   270    1
    238   272   273   ar
    239   274   275   ar
    240   277   278   ar
    241   279   280   ar
    242   282   283    1
    243   282   284    1
    244   285   286    1
    245   287   288    1
    246   287   289    1
    247   287   290    1
    248   291   292    1
    249    54    55    1
    250    54    56    1
    251    57    58    1
    252    59    60    1
    253    59    61    1
    254    62    63    1
    255    62    64    1
    256    65    66    1
    257    67    68    1
    258    67    69    1
    259    70    71    1
    260    70    72    1
    261    73    74    1
    262    73    75    1
    263    76    77    1
    264    78    79    1
    265    78    80    1
    266    81    82    1
    267    81    83    1
    268    84    85    1
    269    86    87    1
    270    86    88    1
    271    89    90    1
    272    89    91    1
    273    92    93    1
    274   146   147    1
    275   146   148    1
    276   149   150    1
    277   151   152    1
    278   151   153    1
    279   154   155    1
    280   154   156    1
    281   157   158    1
    282   159   160    1
    283   159   161    1
    284   162   163    1
    285   162   164    1
    286   165   166    1
    287   165   167    1
    288   168   169    1
    289   170   171    1
    290   170   172    1
    291   173   174    1
    292   173   175    1
    293   176   177    1
    294   178   179    1
    295   178   180    1
    296   181   182    1
    297   181   183    1
    298   184   185    1
    299   184   186    1

