@<TRIPOS>MOLECULE
*****
 41 42 0 0 0
SMALL
GASTEIGER

@<TRIPOS>ATOM
      1 N         -11.3866    0.2201    0.6179 N.3     1  LIG1       -0.3272
      2 C         -10.2476    0.9462    0.0318 C.3     1  LIG1        0.0049
      3 H         -11.1011   -0.2410    1.4795 H       1  LIG1        0.1185
      4 H         -11.7054   -0.5052   -0.0215 H       1  LIG1        0.1185
      5 C          -9.7674    2.0487    1.0011 C.3     1  LIG1       -0.0375
      6 C          -8.5437    2.7930    0.4248 C.3     1  LIG1       -0.0488
      7 H          -9.5041    1.6081    1.9665 H       1  LIG1        0.0280
      8 H         -10.5759    2.7626    1.1775 H       1  LIG1        0.0280
      9 C          -7.3828    1.8121    0.1198 C.3     1  LIG1       -0.0407
     10 H          -8.2137    3.5449    1.1460 H       1  LIG1        0.0268
     11 H          -8.8348    3.3206   -0.4876 H       1  LIG1        0.0268
     12 C          -7.8808    0.7175   -0.8616 C.3     1  LIG1       -0.0488
     13 C          -9.0974   -0.0355   -0.2830 C.3     1  LIG1       -0.0375
     14 H          -7.0868    0.0004   -1.0746 H       1  LIG1        0.0268
     15 H          -8.1623    1.1747   -1.8140 H       1  LIG1        0.0268
     16 H          -8.7993   -0.5673    0.6247 H       1  LIG1        0.0280
     17 H          -9.4369   -0.7831   -1.0042 H       1  LIG1        0.0280
     18 H         -10.5767    1.4153   -0.9001 H       1  LIG1        0.0458
     19 C          -6.1547    2.5746   -0.4564 C.3     1  LIG1       -0.0474
     20 H          -7.0981    1.3377    1.0631 H       1  LIG1        0.0301
     21 C          -4.7952    2.1462    0.1614 C.3     1  LIG1       -0.0407
     22 H          -6.2763    3.6436   -0.2613 H       1  LIG1        0.0271
     23 H          -6.1207    2.4690   -1.5440 H       1  LIG1        0.0271
     24 C          -3.6700    3.0931   -0.3485 C.3     1  LIG1       -0.0488
     25 C          -2.2518    2.4752   -0.2706 C.3     1  LIG1       -0.0375
     26 H          -3.6967    4.0125    0.2418 H       1  LIG1        0.0268
     27 H          -3.8563    3.3801   -1.3866 H       1  LIG1        0.0268
     28 C          -2.1589    1.4318    0.8601 C.3     1  LIG1        0.0049
     29 H          -1.5179    3.2705   -0.1176 H       1  LIG1        0.0280
     30 H          -2.0120    1.9941   -1.2229 H       1  LIG1        0.0280
     31 C          -3.1180    0.2457    0.5850 C.3     1  LIG1       -0.0375
     32 C          -4.4278    0.6690   -0.1288 C.3     1  LIG1       -0.0488
     33 H          -3.3599   -0.2320    1.5376 H       1  LIG1        0.0280
     34 H          -2.6210   -0.5086   -0.0311 H       1  LIG1        0.0280
     35 H          -5.2226   -0.0018    0.2004 H       1  LIG1        0.0268
     36 H          -4.3143    0.5341   -1.2078 H       1  LIG1        0.0268
     37 H          -4.8679    2.2644    1.2464 H       1  LIG1        0.0301
     38 N          -0.7755    0.9473    1.0031 N.3     1  LIG1       -0.3272
     39 H          -0.7142    0.2881    1.7766 H       1  LIG1        0.1185
     40 H          -0.1537    1.7240    1.2190 H       1  LIG1        0.1185
     41 H          -2.4535    1.9145    1.7967 H       1  LIG1        0.0458
@<TRIPOS>BOND
     1     2     1    1
     2     1     3    1
     3     1     4    1
     4     5     2    1
     5     6     5    1
     6     5     7    1
     7     5     8    1
     8     9     6    1
     9     6    10    1
    10     6    11    1
    11    12     9    1
    12    13    12    1
    13    12    14    1
    14    12    15    1
    15    13     2    1
    16    13    16    1
    17    13    17    1
    18     2    18    1
    19    19     9    1
    20     9    20    1
    21    21    19    1
    22    19    22    1
    23    19    23    1
    24    24    21    1
    25    25    24    1
    26    24    26    1
    27    24    27    1
    28    28    25    1
    29    25    29    1
    30    25    30    1
    31    31    28    1
    32    32    31    1
    33    31    33    1
    34    31    34    1
    35    32    21    1
    36    32    35    1
    37    32    36    1
    38    21    37    1
    39    38    28    1
    40    38    39    1
    41    38    40    1
    42    28    41    1
