@<TRIPOS>MOLECULE
system.pdb
130 140 0 0 0
SMALL
GASTEIGER

@<TRIPOS>ATOM
      1  C		   1.6560  10.3020  10.5840	C.3   	  1	  LIG1    0.0395
      2  C		   2.0290  10.4610  12.0710	C.3   	  1	  LIG1    0.1955
      3  O		   0.8880  10.0710  12.8810	O.3   	  1	  LIG1   -0.2191
      4  C		   3.2930   9.6070  12.4250	C.3   	  1	  LIG1    0.2380
      5  O		   4.4690  10.0100  11.6370	O.3   	  1	  LIG1   -0.4727
      6  C		   5.7010   9.3400  11.6420	C.ar  	  1	  LIG1    0.1387
      7  C		   6.6000   9.5400  10.5880	C.ar  	  1	  LIG1    0.0366
      8  C		   7.8000   8.8140  10.5040	C.ar  	  1	  LIG1   -0.0009
      9  C		   8.1490   7.8640  11.4750	C.ar  	  1	  LIG1   -0.0188
     10  C		   7.2690   7.7300  12.5670	C.ar  	  1	  LIG1   -0.0009
     11  C		   6.0710   8.4480  12.6510	C.ar  	  1	  LIG1    0.0366
     12  C		   9.2890   6.8290  11.1990	C.3   	  1	  LIG1    0.0377
     13  C		   8.7270   5.9150  10.0740	C.3   	  1	  LIG1    0.0088
     14  C		   9.5240   5.8830  12.4110	C.3   	  1	  LIG1    0.0088
     15  C		  10.7110   7.3820  10.8500	C.ar  	  1	  LIG1   -0.0188
     16  C		  11.3810   8.2380  11.7370	C.ar  	  1	  LIG1   -0.0009
     17  C		  12.7550   8.4980  11.6060	C.ar  	  1	  LIG1    0.0366
     18  C		  13.5140   7.9090  10.5890	C.ar  	  1	  LIG1    0.1387
     19  C		  12.8450   7.1110   9.6590	C.ar  	  1	  LIG1    0.0366
     20  C		  11.4750   6.8560   9.7880	C.ar  	  1	  LIG1   -0.0009
     21  O		  14.9010   8.1130  10.5530	O.3   	  1	  LIG1   -0.4727
     22  C		  15.8550   7.2630   9.8240	C.3   	  1	  LIG1    0.2380
     23  C		  17.3410   7.6600  10.1190	C.3   	  1	  LIG1    0.1955
     24  C		  17.6600   7.5180  11.6210	C.3   	  1	  LIG1    0.0395
     25  O		  18.2660   6.8320   9.3670	O.3   	  1	  LIG1   -0.2191
     26  C		  18.7970  15.4920  11.5450	C.3   	  2	  LIG2    0.0395
     27  C		  19.7710  14.3390  11.8550	C.3   	  2	  LIG2    0.1955
     28  O		  21.1200  14.8720  11.9110	O.3   	  2	  LIG2   -0.2191
     29  C		  19.3860  13.6280  13.1960	C.3   	  2	  LIG2    0.2380
     30  O		  18.0330  13.0520  13.1470	O.3   	  2	  LIG2   -0.4727
     31  C		  17.3700  12.4740  14.2410	C.ar  	  2	  LIG2    0.1387
     32  C		  15.9790  12.3300  14.2080	C.ar  	  2	  LIG2    0.0366
     33  C		  15.2680  11.8500  15.3200	C.ar  	  2	  LIG2   -0.0009
     34  C		  15.9230  11.4880  16.5060	C.ar  	  2	  LIG2   -0.0188
     35  C		  17.3300  11.5690  16.4960	C.ar  	  2	  LIG2   -0.0009
     36  C		  18.0400  12.0510  15.3910	C.ar  	  2	  LIG2    0.0366
     37  C		  15.1150  11.2920  17.8310	C.3   	  2	  LIG2    0.0377
     38  C		  14.6020  12.7150  18.1940	C.3   	  2	  LIG2    0.0088
     39  C		  16.0310  10.8780  19.0170	C.3   	  2	  LIG2    0.0088
     40  C		  13.9620  10.2340  17.8360	C.ar  	  2	  LIG2   -0.0188
     41  C		  14.2240   8.8920  17.5210	C.ar  	  2	  LIG2   -0.0009
     42  C		  13.2980   7.8770  17.8120	C.ar  	  2	  LIG2    0.0366
     43  C		  12.0780   8.1620  18.4350	C.ar  	  2	  LIG2    0.1387
     44  C		  11.7770   9.5010  18.6910	C.ar  	  2	  LIG2    0.0366
     45  C		  12.6980  10.5120  18.3960	C.ar  	  2	  LIG2   -0.0009
     46  O		  11.2260   7.1100  18.8020	O.3   	  2	  LIG2   -0.4727
     47  C		  10.1460   7.2140  19.7940	C.3   	  2	  LIG2    0.2380
     48  C		   9.4880   5.8240  20.0950	C.3   	  2	  LIG2    0.1955
     49  C		  10.5290   4.8340  20.6560	C.3   	  2	  LIG2    0.0395
     50  O		   8.4040   5.9510  21.0520	O.3   	  2	  LIG2   -0.2191
     51  C		  21.7940   2.1450  23.4590	C.3   	  3	  LIG3    0.0395
     52  C		  20.8080   1.9030  22.2990	C.3   	  3	  LIG3    0.1955
     53  O		  19.7010   1.1020  22.7890	O.3   	  3	  LIG3   -0.2191
     54  C		  20.3050   3.2600  21.7020	C.3   	  3	  LIG3    0.2380
     55  O		  21.4100   4.0740  21.1710	O.3   	  3	  LIG3   -0.4727
     56  C		  21.2790   5.3880  20.6980	C.ar  	  3	  LIG3    0.1387
     57  C		  22.4130   6.2030  20.6000	C.ar  	  3	  LIG3    0.0366
     58  C		  22.3110   7.5530  20.2270	C.ar  	  3	  LIG3   -0.0009
     59  C		  21.0730   8.1390  19.9310	C.ar  	  3	  LIG3   -0.0188
     60  C		  19.9510   7.2850  19.9620	C.ar  	  3	  LIG3   -0.0009
     61  C		  20.0490   5.9410  20.3380	C.ar  	  3	  LIG3    0.0366
     62  C		  20.9260   9.6950  19.8600	C.3   	  3	  LIG3    0.0377
     63  C		  21.1440  10.1770  21.3220	C.3   	  3	  LIG3    0.0088
     64  C		  19.4760  10.1290  19.5030	C.3   	  3	  LIG3    0.0088
     65  C		  21.8310  10.4690  18.8460	C.ar  	  3	  LIG3   -0.0188
     66  C		  21.7870  10.1680  17.4760	C.ar  	  3	  LIG3   -0.0009
     67  C		  22.3390  11.0330  16.5170	C.ar  	  3	  LIG3    0.0366
     68  C		  22.9510  12.2350  16.8880	C.ar  	  3	  LIG3    0.1387
     69  C		  23.0620  12.5130  18.2520	C.ar  	  3	  LIG3    0.0366
     70  C		  22.5150  11.6480  19.2070	C.ar  	  3	  LIG3   -0.0009
     71  O		  23.3990  13.1200  15.8960	O.3   	  3	  LIG3   -0.4727
     72  C		  23.6740  14.5480  16.1090	C.3   	  3	  LIG3    0.2380
     73  C		  23.9990  15.2910  14.7690	C.3   	  3	  LIG3    0.1955
     74  C		  22.8140  15.1970  13.7870	C.3   	  3	  LIG3    0.0395
     75  O		  24.3000  16.6920  15.0030	O.3   	  3	  LIG3   -0.2191
     76  C		  21.5800  18.7080   1.5620	C.3   	  4	  LIG4    0.0395
     77  C		  20.9130  19.3650   2.7860	C.3   	  4	  LIG4    0.1955
     78  O		  19.9090  20.3040   2.3190	O.3   	  4	  LIG4   -0.2191
     79  C		  20.2830  18.2830   3.7270	C.3   	  4	  LIG4    0.2380
     80  O		  21.2920  17.3400   4.2360	O.3   	  4	  LIG4   -0.4727
     81  C		  21.0030  16.1930   4.9900	C.ar  	  4	  LIG4    0.1387
     82  C		  21.9520  15.1670   5.0780	C.ar  	  4	  LIG4    0.0366
     83  C		  21.6640  13.9610   5.7370	C.ar  	  4	  LIG4   -0.0009
     84  C		  20.4200  13.7370   6.3420	C.ar  	  4	  LIG4   -0.0188
     85  C		  19.5040  14.8080   6.3090	C.ar  	  4	  LIG4   -0.0009
     86  C		  19.7860  16.0080   5.6480	C.ar  	  4	  LIG4    0.0366
     87  C		  19.9890  12.2930   6.7610	C.3   	  4	  LIG4    0.0377
     88  C		  19.8110  11.5300   5.4180	C.3   	  4	  LIG4    0.0088
     89  C		  18.5830  12.2730   7.4260	C.3   	  4	  LIG4    0.0088
     90  C		  20.9080  11.5150   7.7600	C.ar  	  4	  LIG4   -0.0188
     91  C		  21.1990  12.0490   9.0250	C.ar  	  4	  LIG4   -0.0009
     92  C		  21.7510  11.2570  10.0440	C.ar  	  4	  LIG4    0.0366
     93  C		  22.0290   9.9010   9.8430	C.ar  	  4	  LIG4    0.1387
     94  C		  21.8080   9.3750   8.5690	C.ar  	  4	  LIG4    0.0366
     95  C		  21.2620  10.1670   7.5520	C.ar  	  4	  LIG4   -0.0009
     96  O		  22.4840   9.1200  10.9160	O.3   	  4	  LIG4   -0.4727
     97  C		  22.4260   7.6520  10.9680	C.3   	  4	  LIG4    0.2380
     98  C		  22.8600   7.0950  12.3660	C.3   	  4	  LIG4    0.1955
     99  C		  21.9370   7.6260  13.4810	C.3   	  4	  LIG4    0.0395
    100  O		  22.8280   5.6440  12.3880	O.3   	  4	  LIG4   -0.2191
    101  N		  18.9620   3.9480   2.6710	N.3   	  1	  LIG1   -0.1329
    102  C		  18.0920   5.0570   3.0970	C.3   	  1	  LIG1    0.0918
    103  C		  18.8290   5.9450   4.1240	C.3   	  1	  LIG1    0.0190
    104  C		  17.9500   7.1400   4.5490	C.3   	  1	  LIG1    0.0015
    105  C		  17.5250   7.9880   3.3240	C.3   	  1	  LIG1    0.0001
    106  C		  16.7780   7.0830   2.3080	C.3   	  1	  LIG1    0.0015
    107  C		  17.6590   5.8930   1.8720	C.3   	  1	  LIG1    0.0190
    108  C		  16.6440   9.1920   3.7670	C.3   	  1	  LIG1    0.0000
    109  C		  17.0220  10.5380   3.0900	C.3   	  1	  LIG1    0.0001
    110  C		  16.2070  11.6940   3.7380	C.3   	  1	  LIG1    0.0015
    111  C		  16.0660  12.9430   2.8330	C.3   	  1	  LIG1    0.0190
    112  C		  17.2580  13.0650   1.8620	C.3   	  1	  LIG1    0.0918
    113  C		  17.3000  11.8520   0.8990	C.3   	  1	  LIG1    0.0190
    114  C		  16.8180  10.5310   1.5540	C.3   	  1	  LIG1    0.0015
    115  N		  17.1750  14.3220   1.0980	N.3   	  1	  LIG1   -0.1329
    116  N		   6.2060  11.1240   2.3270	N.3   	  2	  LIG2   -0.1329
    117  C		   6.8470  12.4230   2.5870	C.3   	  2	  LIG2    0.0918
    118  C		   7.3470  13.0430   1.2630	C.3   	  2	  LIG2    0.0190
    119  C		   7.9830  14.4270   1.5080	C.3   	  2	  LIG2    0.0015
    120  C		   6.9830  15.3890   2.2000	C.3   	  2	  LIG2    0.0001
    121  C		   6.5000  14.7560   3.5320	C.3   	  2	  LIG2    0.0015
    122  C		   5.8540  13.3760   3.2880	C.3   	  2	  LIG2    0.0190
    123  C		   7.6350  16.7820   2.4380	C.3   	  2	  LIG2    0.0000
    124  C		   6.7210  17.9820   2.0660	C.3   	  2	  LIG2    0.0001
    125  C		   7.5320  19.3060   2.1660	C.3   	  2	  LIG2    0.0015
    126  C		   6.6510  20.5640   2.3660	C.3   	  2	  LIG2    0.0190
    127  C		   5.2500  20.3670   1.7530	C.3   	  2	  LIG2    0.0918
    128  C		   4.5020  19.2140   2.4690	C.3   	  2	  LIG2    0.0190
    129  C		   5.4390  18.0690   2.9320	C.3   	  2	  LIG2    0.0015
    130  N		   4.4690  21.6140   1.8380	N.3   	  2	  LIG2   -0.1329
@<TRIPOS>BOND
      1   113   114    1
      2   113   112    1
      3   115   112    1
      4   118   119    1
      5   118   117    1
      6   119   120    1
      7   114   109    1
      8    76    77    1
      9   127   130    1
     10   127   126    1
     11   127   128    1
     12   112   111    1
     13   107   106    1
     14   107   102    1
     15   124   125    1
     16   124   123    1
     17   124   129    1
     18   125   126    1
     19   120   123    1
     20   120   121    1
     21   106   105    1
     22    78    77    1
     23   116   117    1
     24   128   129    1
     25   117   122    1
     26   101   102    1
     27    77    79    1
     28   111   110    1
     29   109   110    1
     30   109   108    1
     31   102   103    1
     32   122   121    1
     33   105   108    1
     34   105   104    1
     35    79    80    1
     36   103   104    1
     37    80    81    1
     38    81    82   ar
     39    81    86   ar
     40    82    83   ar
     41    88    87    1
     42    86    85   ar
     43    83    84   ar
     44    85    84   ar
     45    84    87    1
     46    87    89    1
     47    87    90    1
     48    95    90   ar
     49    95    94   ar
     50    90    91   ar
     51    94    93   ar
     52    91    92   ar
     53    25    23    1
     54    19    20   ar
     55    19    18   ar
     56    20    15   ar
     57    22    23    1
     58    22    21    1
     59    93    92   ar
     60    93    96    1
     61    13    12    1
     62    23    24    1
     63     8     7   ar
     64     8     9   ar
     65    21    18    1
     66     1     2    1
     67     7     6   ar
     68    18    17   ar
     69    15    12    1
     70    15    16   ar
     71    96    97    1
     72    97    98    1
     73    12     9    1
     74    12    14    1
     75     9    10   ar
     76    26    27    1
     77    17    16   ar
     78     5     6    1
     79     5     4    1
     80     6    11   ar
     81    27    28    1
     82    27    29    1
     83     2     4    1
     84     2     3    1
     85    98   100    1
     86    98    99    1
     87    10    11   ar
     88    30    29    1
     89    30    31    1
     90    74    73    1
     91    32    31   ar
     92    32    33   ar
     93    31    36   ar
     94    73    75    1
     95    73    72    1
     96    33    34   ar
     97    36    35   ar
     98    71    72    1
     99    71    68    1
    100    35    34   ar
    101    34    37    1
    102    67    68   ar
    103    67    66   ar
    104    68    69   ar
    105    66    65   ar
    106    41    42   ar
    107    41    40   ar
    108    42    43   ar
    109    37    40    1
    110    37    38    1
    111    37    39    1
    112    40    45   ar
    113    69    70   ar
    114    45    44   ar
    115    43    44   ar
    116    43    46    1
    117    46    47    1
    118    65    70   ar
    119    65    62    1
    120    64    62    1
    121    47    48    1
    122    62    59    1
    123    62    63    1
    124    59    60   ar
    125    59    58   ar
    126    60    61   ar
    127    48    49    1
    128    48    50    1
    129    58    57   ar
    130    61    56   ar
    131    57    56   ar
    132    56    55    1
    133    55    54    1
    134    54    52    1
    135    52    53    1
    136    52    51    1
    137   130     1    1
    138   115    76    1
    139   101    26    1
    140   116     1    1

