@<TRIPOS>MOLECULE
system.pdb
 130 136 0 0 0
SMALL
GASTEIGER

@<TRIPOS>ATOM
      1  C         40.4270    4.4140   21.6950 C.3     1  LIG1        0.0395
      2  C         40.7360    5.9200   21.8010 C.3     1  LIG1        0.1955
      3  O         41.4750    6.3280   20.6190 O.3     1  LIG1       -0.2191
      4  C         39.4190    6.7520   21.9600 C.3     1  LIG1        0.2380
      5  O         38.6720    6.3750   23.1710 O.3     1  LIG1       -0.4727
      6  C         37.3960    6.8540   23.5030 C.ar    1  LIG1        0.1387
      7  C         36.6150    6.1530   24.4280 C.ar    1  LIG1        0.0366
      8  C         35.2950    6.5410   24.7130 C.ar    1  LIG1       -0.0009
      9  C         34.7080    7.6500   24.0880 C.ar    1  LIG1       -0.0188
     10  C         35.5340    8.3880   23.2160 C.ar    1  LIG1       -0.0009
     11  C         36.8470    8.0010   22.9270 C.ar    1  LIG1        0.0366
     12  C         33.1600    7.8660   24.1420 C.3     1  LIG1        0.0377
     13  C         32.5710    6.7000   23.2980 C.3     1  LIG1        0.0088
     14  C         32.7250    9.1620   23.4010 C.3     1  LIG1        0.0088
     15  C         32.4840    7.9710   25.5490 C.ar    1  LIG1       -0.0188
     16  C         32.8890    8.9550   26.4640 C.ar    1  LIG1       -0.0009
     17  C         32.1120    9.2730   27.5890 C.ar    1  LIG1        0.0366
     18  C         30.8980    8.6270   27.8420 C.ar    1  LIG1        0.1387
     19  C         30.5180    7.5990   26.9780 C.ar    1  LIG1        0.0366
     20  C         31.2960    7.2780   25.8590 C.ar    1  LIG1       -0.0009
     21  O         30.1020    9.0440   28.9190 O.3     1  LIG1       -0.4727
     22  C         28.6670    8.7560   29.0610 C.3     1  LIG1        0.2380
     23  C         28.0370    9.5000   30.2870 C.3     1  LIG1        0.1955
     24  C         28.1810   11.0270   30.1370 C.3     1  LIG1        0.0395
     25  O         26.6280    9.1780   30.4310 O.3     1  LIG1       -0.2191
     26  C         11.6700   17.2160   26.0330 C.3     2  LIG2        0.0395
     27  C         10.7930   18.0190   25.0540 C.3     2  LIG2        0.1955
     28  O          9.9810   18.9520   25.8150 O.3     2  LIG2       -0.2191
     29  C         11.6740   18.7650   23.9970 C.3     2  LIG2        0.2380
     30  O         12.4800   17.8330   23.1930 O.3     2  LIG2       -0.4727
     31  C         13.4580   18.2190   22.2640 C.ar    2  LIG2        0.1387
     32  C         14.4300   17.2960   21.8610 C.ar    2  LIG2        0.0366
     33  C         15.4840   17.6700   21.0120 C.ar    2  LIG2       -0.0009
     34  C         15.6030   18.9800   20.5270 C.ar    2  LIG2       -0.0188
     35  C         14.5750   19.8760   20.8820 C.ar    2  LIG2       -0.0009
     36  C         13.5260   19.5080   21.7320 C.ar    2  LIG2        0.0366
     37  C         16.9410   19.4700   19.8810 C.3     2  LIG2        0.0377
     38  C         17.9600   19.4920   21.0560 C.3     2  LIG2        0.0088
     39  C         16.8500   20.9450   19.3970 C.3     2  LIG2        0.0088
     40  C         17.4880   18.6820   18.6450 C.ar    2  LIG2       -0.0188
     41  C         16.7080   18.5410   17.4870 C.ar    2  LIG2       -0.0009
     42  C         17.2710   18.1200   16.2710 C.ar    2  LIG2        0.0366
     43  C         18.6360   17.8320   16.1620 C.ar    2  LIG2        0.1387
     44  C         19.4090   17.9030   17.3220 C.ar    2  LIG2        0.0366
     45  C         18.8460   18.3170   18.5350 C.ar    2  LIG2       -0.0009
     46  O         19.1790   17.5150   14.9080 O.3     2  LIG2       -0.4727
     47  C         20.6080   17.5900   14.5710 C.3     2  LIG2        0.2380
     48  C         20.8670   17.3300   13.0480 C.3     2  LIG2        0.1955
     49  C         20.1380   18.3760   12.1800 C.3     2  LIG2        0.0395
     50  O         22.2850   17.3770   12.7400 O.3     2  LIG2       -0.2191
     51  C         40.1690    8.1750   24.8690 C.3     3  LIG3        0.0395
     52  C         39.5990    7.8840   26.2700 C.3     3  LIG3        0.1955
     53  O         40.5530    7.0700   27.0010 O.3     3  LIG3       -0.2191
     54  C         39.2870    9.2150   27.0330 C.3     3  LIG3        0.2380
     55  O         38.2960   10.0400   26.3230 O.3     3  LIG3       -0.4727
     56  C         37.9220   11.3390   26.6980 C.ar    3  LIG3        0.1387
     57  C         37.3020   12.1760   25.7630 C.ar    3  LIG3        0.0366
     58  C         37.0030   13.5140   26.0670 C.ar    3  LIG3       -0.0009
     59  C         37.3070   14.0650   27.3190 C.ar    3  LIG3       -0.0188
     60  C         37.8620   13.1880   28.2730 C.ar    3  LIG3       -0.0009
     61  C         38.1650   11.8560   27.9720 C.ar    3  LIG3        0.0366
     62  C         37.2940   15.6160   27.5290 C.3     3  LIG3        0.0377
     63  C         38.4850   16.1380   26.6760 C.3     3  LIG3        0.0088
     64  C         37.6420   16.0090   28.9930 C.3     3  LIG3        0.0088
     65  C         35.9680   16.3850   27.2190 C.ar    3  LIG3       -0.0188
     66  C         34.7770   16.0500   27.8810 C.ar    3  LIG3       -0.0009
     67  C         33.6620   16.9040   27.8600 C.ar    3  LIG3        0.0366
     68  C         33.6950   18.1280   27.1830 C.ar    3  LIG3        0.1387
     69  C         34.8500   18.4410   26.4640 C.ar    3  LIG3        0.0366
     70  C         35.9590   17.5870   26.4820 C.ar    3  LIG3       -0.0009
     71  O         32.5980   18.9980   27.2710 O.3     3  LIG3       -0.4727
     72  C         32.6440   20.4370   26.9730 C.3     3  LIG3        0.2380
     73  C         31.2970   21.1540   27.3250 C.3     3  LIG3        0.1955
     74  C         30.9750   21.0110   28.8260 C.3     3  LIG3        0.0395
     75  O         31.3500   22.5660   26.9940 O.3     3  LIG3       -0.2191
     76  C          7.8600    6.4330   20.6570 C.3     4  LIG4        0.0395
     77  C          7.6430    5.0030   21.1870 C.3     4  LIG4        0.1955
     78  O          6.4620    4.4460   20.5510 O.3     4  LIG4       -0.2191
     79  C          8.9030    4.1110   20.9230 C.3     4  LIG4        0.2380
     80  O         10.1030    4.6430   21.5870 O.3     4  LIG4       -0.4727
     81  C         11.4000    4.1320   21.4220 C.ar    4  LIG4        0.1387
     82  C         12.5030    4.9260   21.7550 C.ar    4  LIG4        0.0366
     83  C         13.8160    4.4920   21.5110 C.ar    4  LIG4       -0.0009
     84  C         14.0770    3.2420   20.9310 C.ar    4  LIG4       -0.0188
     85  C         12.9580    2.4250   20.6710 C.ar    4  LIG4       -0.0009
     86  C         11.6490    2.8570   20.9090 C.ar    4  LIG4        0.0366
     87  C         15.4920    2.9160   20.3500 C.3     4  LIG4        0.0377
     88  C         15.6380    3.8540   19.1190 C.3     4  LIG4        0.0088
     89  C         15.5670    1.4740   19.7710 C.3     4  LIG4        0.0088
     90  C         16.7200    3.0180   21.3140 C.ar    4  LIG4       -0.0188
     91  C         16.7680    2.2550   22.4910 C.ar    4  LIG4       -0.0009
     92  C         17.9650    2.0880   23.2070 C.ar    4  LIG4        0.0366
     93  C         19.1610    2.6690   22.7720 C.ar    4  LIG4        0.1387
     94  C         19.1110    3.4860   21.6410 C.ar    4  LIG4        0.0366
     95  C         17.9170    3.6570   20.9310 C.ar    4  LIG4       -0.0009
     96  O         20.3540    2.3950   23.4570 O.3     4  LIG4       -0.4727
     97  C         21.7020    2.5870   22.9020 C.3     4  LIG4        0.2380
     98  C         22.8150    2.0340   23.8550 C.3     4  LIG4        0.1955
     99  C         22.6320    0.5220   24.0930 C.3     4  LIG4        0.0395
    100  O         24.1390    2.2620   23.3060 O.3     4  LIG4       -0.2191
    101  N         21.9890    6.9640    1.8410 N.3     1  LIG1       -0.1329
    102  C         22.7450    8.1610    2.2440 C.3     1  LIG1        0.0918
    103  C         22.5870    9.2710    1.1820 C.3     1  LIG1        0.0190
    104  C         23.3360   10.5510    1.6080 C.3     1  LIG1        0.0015
    105  C         22.8390   11.0600    2.9850 C.3     1  LIG1        0.0001
    106  C         23.0150    9.9360    4.0410 C.3     1  LIG1        0.0015
    107  C         22.2570    8.6590    3.6220 C.3     1  LIG1        0.0190
    108  C         23.5990   12.3530    3.4000 C.3     1  LIG1        0.0000
    109  C         22.6840   13.4710    3.9720 C.3     1  LIG1        0.0001
    110  C         23.5150   14.7700    4.1780 C.3     1  LIG1        0.0015
    111  C         22.9040   15.7440    5.2160 C.3     1  LIG1        0.0190
    112  C         21.3720   15.5890    5.2920 C.3     1  LIG1        0.0918
    113  C         20.9930   14.1670    5.7780 C.3     1  LIG1        0.0190
    114  C         21.9750   13.0700    5.2900 C.3     1  LIG1        0.0015
    115  N         20.7930   16.6060    6.1870 N.3     1  LIG1       -0.1329
    116  N         46.7120   24.3320    3.2310 N.3     2  LIG2       -0.1329
    117  C         45.3000   24.1490    2.8530 C.3     2  LIG2        0.0918
    118  C         44.6090   23.1800    3.8390 C.3     2  LIG2        0.0190
    119  C         43.1160   23.0100    3.4870 C.3     2  LIG2        0.0015
    120  C         42.3820   24.3750    3.4830 C.3     2  LIG2        0.0001
    121  C         43.0830   25.3310    2.4810 C.3     2  LIG2        0.0015
    122  C         44.5730   25.5120    2.8370 C.3     2  LIG2        0.0190
    123  C         40.8770   24.1890    3.1310 C.3     2  LIG2        0.0000
    124  C         39.9090   24.9980    4.0380 C.3     2  LIG2        0.0001
    125  C         38.4390   24.5960    3.7210 C.3     2  LIG2        0.0015
    126  C         37.3980   25.6710    4.1220 C.3     2  LIG2        0.0190
    127  C         37.9030   26.5220    5.3040 C.3     2  LIG2        0.0918
    128  C         39.1790   27.3050    4.9020 C.3     2  LIG2        0.0190
    129  C         40.0870   26.5320    3.9110 C.3     2  LIG2        0.0015
    130  N         36.8540   27.4530    5.7550 N.3     2  LIG2       -0.1329
@<TRIPOS>BOND
     1   103   104    1
     2   103   102    1
     3   104   105    1
     4   101   102    1
     5   102   107    1
     6   121   122    1
     7   121   120    1
     8   122   117    1
     9   117   116    1
    10   117   118    1
    11   105   108    1
    12   105   106    1
    13   123   120    1
    14   123   124    1
    15   108   109    1
    16   120   119    1
    17   119   118    1
    18   107   106    1
    19   125   124    1
    20   125   126    1
    21   129   124    1
    22   129   128    1
    23   109   110    1
    24   109   114    1
    25   126   127    1
    26   110   111    1
    27   128   127    1
    28   111   112    1
    29   114   113    1
    30   112   113    1
    31   112   115    1
    32   127   130    1
    33    49    48    1
    34    50    48    1
    35    48    47    1
    36    47    46    1
    37    46    43    1
    38    43    42   ar
    39    43    44   ar
    40    42    41   ar
    41    44    45   ar
    42    41    40   ar
    43    45    40   ar
    44    40    37    1
    45    88    87    1
    46    39    37    1
    47    89    87    1
    48    37    34    1
    49    37    38    1
    50    87    84    1
    51    87    90    1
    52    34    35   ar
    53    34    33   ar
    54    78    77    1
    55     3     2    1
    56    76    77    1
    57    85    86   ar
    58    85    84   ar
    59    35    36   ar
    60    86    81   ar
    61    79    77    1
    62    79    80    1
    63    95    90   ar
    64    95    94   ar
    65    84    83   ar
    66    33    32   ar
    67    90    91   ar
    68    81    80    1
    69    81    82   ar
    70    83    82   ar
    71    94    93   ar
    72     1     2    1
    73    36    31   ar
    74     2     4    1
    75    32    31   ar
    76     4     5    1
    77    31    30    1
    78    91    92   ar
    79    93    92   ar
    80    93    96    1
    81    97    96    1
    82    97    98    1
    83    11    10   ar
    84    11     6   ar
    85     5     6    1
    86    30    29    1
    87    10     9   ar
    88    13    12    1
    89   100    98    1
    90    14    12    1
    91     6     7   ar
    92    98    99    1
    93    29    27    1
    94     9    12    1
    95     9     8   ar
    96    12    15    1
    97     7     8   ar
    98    51    52    1
    99    27    28    1
   100    27    26    1
   101    15    20   ar
   102    15    16   ar
   103    57    58   ar
   104    57    56   ar
   105    20    19   ar
   106    58    59   ar
   107    52    53    1
   108    52    54    1
   109    55    56    1
   110    55    54    1
   111    16    17   ar
   112    69    70   ar
   113    69    68   ar
   114    70    65   ar
   115    63    62    1
   116    56    61   ar
   117    72    71    1
   118    72    73    1
   119    19    18   ar
   120    75    73    1
   121    68    71    1
   122    68    67   ar
   123    65    62    1
   124    65    66   ar
   125    59    62    1
   126    59    60   ar
   127    73    74    1
   128    62    64    1
   129    17    18   ar
   130    18    21    1
   131    67    66   ar
   132    61    60   ar
   133    21    22    1
   134    22    23    1
   135    24    23    1
   136    23    25    1
