@<TRIPOS>MOLECULE
system.pdb
 130 137 0 0 0
SMALL
GASTEIGER

@<TRIPOS>ATOM
      1  C		  37.9600  16.2200  28.7700	C.3   	  1	 1LIG1   -0.0357
      2  C		  38.1600  17.7300  28.9100	C.3   	  1	 1LIG1    0.0864
      3  O		  38.8300  18.2200  27.7600	O.3   	  1	 1LIG1   -0.3887
      4  C		  36.8500  18.5100  29.0900	C.3   	  1	 1LIG1    0.1151
      5  O		  36.2100  18.0800  30.2900	O.3   	  1	 1LIG1   -0.4884
      6  C		  34.9900  18.6300  30.6100	C.ar  	  1	 1LIG1    0.1206
      7  C		  34.2100  17.9500  31.5600	C.ar  	  1	 1LIG1   -0.0197
      8  C		  32.9200  18.4100  31.8900	C.ar  	  1	 1LIG1   -0.0543
      9  C		  32.3600  19.5500  31.2600	C.ar  	  1	 1LIG1   -0.0372
     10  C		  33.1900  20.2800  30.3700	C.ar  	  1	 1LIG1   -0.0543
     11  C		  34.4800  19.8200  30.0300	C.ar  	  1	 1LIG1   -0.0197
     12  C		  30.8300  19.6800  31.1700	C.3   	  1	 1LIG1    0.0151
     13  C		  30.3000  18.5100  30.3100	C.3   	  1	 1LIG1   -0.0517
     14  C		  30.3700  20.9900  30.4700	C.3   	  1	 1LIG1   -0.0517
     15  C		  30.2800  19.6800  32.6000	C.ar  	  1	 1LIG1   -0.0372
     16  C		  30.7200  20.6700  33.5100	C.ar  	  1	 1LIG1   -0.0543
     17  C		  29.9400  21.0300  34.6300	C.ar  	  1	 1LIG1   -0.0197
     18  C		  28.7100  20.4000  34.8900	C.ar  	  1	 1LIG1    0.1206
     19  C		  28.2800  19.3800  34.0100	C.ar  	  1	 1LIG1   -0.0197
     20  C		  29.0600  19.0100  32.9000	C.ar  	  1	 1LIG1   -0.0543
     21  O		  27.9900  20.8100  35.9900	O.3   	  1	 1LIG1   -0.4894
     22  C		  26.5900  20.5700  35.9900	C.3   	  1	 1LIG1    0.1151
     23  C		  25.9700  21.2600  37.2200	C.3   	  1	 1LIG1    0.0864
     24  C		  25.9900  22.7900  37.1100	C.3   	  1	 1LIG1   -0.0357
     25  O		  24.6300  20.8400  37.3500	O.3   	  1	 1LIG1   -0.3887
     26  N		  19.8100  20.1600   9.4500	N.3   	  1	 1LIG1   -0.3272
     27  C		  20.3200  21.2600  10.2500	C.3   	  1	 1LIG1    0.0049
     28  C		  20.0200  22.6100   9.5600	C.3   	  1	 1LIG1   -0.0375
     29  C		  20.3600  23.8300  10.4600	C.3   	  1	 1LIG1   -0.0488
     30  C		  19.7500  23.7800  11.8900	C.3   	  1	 1LIG1   -0.0407
     31  C		  20.1100  22.4100  12.5200	C.3   	  1	 1LIG1   -0.0488
     32  C		  19.6900  21.2100  11.6500	C.3   	  1	 1LIG1   -0.0375
     33  C		  20.2300  24.9800  12.7900	C.3   	  1	 1LIG1   -0.0474
     34  C		  19.2000  25.7500  13.6900	C.3   	  1	 1LIG1   -0.0407
     35  C		  19.8100  27.0700  14.2600	C.3   	  1	 1LIG1   -0.0488
     36  C		  19.5500  27.3900  15.7700	C.3   	  1	 1LIG1   -0.0372
     37  C		  18.1200  27.1200  16.3100	C.3   	  1	 1LIG1    0.0109
     38  C		  17.5800  25.7800  15.7100	C.3   	  1	 1LIG1   -0.0372
     39  C		  18.5800  24.9500  14.8500	C.3   	  1	 1LIG1   -0.0488
     40  N		  18.0300  27.1300  17.8000	N.3   	  1	 1LIG1   -0.2770
     41  C		  10.1800  29.2200  32.0500	C.3   	  2	 2LIG2   -0.0357
     42  C		   9.6400  29.9300  30.7900	C.3   	  2	 2LIG2    0.0864
     43  O		   8.8900  31.0400  31.2400	O.3   	  2	 2LIG2   -0.3887
     44  C		  10.7300  30.4200  29.8000	C.3   	  2	 2LIG2    0.1151
     45  O		  11.2300  29.3500  28.9900	O.3   	  2	 2LIG2   -0.4894
     46  C		  12.1500  29.6300  27.9900	C.ar  	  2	 2LIG2    0.1206
     47  C		  12.9700  28.5800  27.5200	C.ar  	  2	 2LIG2   -0.0197
     48  C		  13.7500  28.7100  26.3400	C.ar  	  2	 2LIG2   -0.0543
     49  C		  13.7900  29.9100  25.5800	C.ar  	  2	 2LIG2   -0.0372
     50  C		  12.8900  30.9300  26.0300	C.ar  	  2	 2LIG2   -0.0543
     51  C		  12.1400  30.8200  27.2200	C.ar  	  2	 2LIG2   -0.0197
     52  C		  15.1300  30.3200  24.8800	C.3   	  2	 2LIG2    0.0151
     53  C		  16.2200  30.2400  25.9800	C.3   	  2	 2LIG2   -0.0517
     54  C		  15.1000  31.8200  24.4700	C.3   	  2	 2LIG2   -0.0517
     55  C		  15.5200  29.4900  23.6000	C.ar  	  2	 2LIG2   -0.0372
     56  C		  14.6700  29.4000  22.4700	C.ar  	  2	 2LIG2   -0.0543
     57  C		  15.1500  29.0800  21.1600	C.ar  	  2	 2LIG2   -0.0196
     58  C		  16.5300  28.8500  20.8700	C.ar  	  2	 2LIG2    0.1229
     59  C		  17.3700  28.9100  22.0100	C.ar  	  2	 2LIG2   -0.0196
     60  C		  16.8900  29.2200  23.3100	C.ar  	  2	 2LIG2   -0.0543
     61  O		  16.8800  28.0200  19.7900	O.3   	  2	 2LIG2   -0.4712
     62  C		  17.5800  28.3600  18.5700	C.3   	  2	 2LIG2    0.1776
     63  C		  18.8100  29.3100  18.7500	C.3   	  2	 2LIG2    0.1029
     64  C		  18.4500  30.8000  18.7900	C.3   	  2	 2LIG2   -0.0341
     65  O		  19.5900  28.9700  19.8800	O.3   	  2	 2LIG2   -0.3870
     66  N		  44.3800  36.1300  10.3800	N.3   	  2	 2LIG2   -0.3272
     67  C		  43.0100  35.9400   9.9500	C.3   	  2	 2LIG2    0.0049
     68  C		  42.2900  34.9800  10.9200	C.3   	  2	 2LIG2   -0.0375
     69  C		  40.7900  34.8400  10.5900	C.3   	  2	 2LIG2   -0.0488
     70  C		  40.0800  36.2100  10.5200	C.3   	  2	 2LIG2   -0.0407
     71  C		  40.8100  37.1400   9.5300	C.3   	  2	 2LIG2   -0.0488
     72  C		  42.3000  37.3000   9.8900	C.3   	  2	 2LIG2   -0.0375
     73  C		  38.5800  36.0600  10.1600	C.3   	  2	 2LIG2   -0.0474
     74  C		  37.6200  36.8000  11.1100	C.3   	  2	 2LIG2   -0.0407
     75  C		  36.1500  36.3900  10.8300	C.3   	  2	 2LIG2   -0.0488
     76  C		  35.1000  37.4200  11.2700	C.3   	  2	 2LIG2   -0.0375
     77  C		  35.6000  38.3200  12.4200	C.3   	  2	 2LIG2    0.0049
     78  C		  36.8700  39.1000  12.0200	C.3   	  2	 2LIG2   -0.0375
     79  C		  37.7900  38.3400  11.0500	C.3   	  2	 2LIG2   -0.0488
     80  N		  34.5500  39.2400  12.7900	N.3   	  2	 2LIG2   -0.3272
     81  C		  37.9100  20.2000  32.1100	C.3   	  3	 3LIG3   -0.0357
     82  C		  37.1800  19.9400  33.4300	C.3   	  3	 3LIG3    0.0864
     83  O		  38.0000  19.1400  34.2500	O.3   	  3	 3LIG3   -0.3887
     84  C		  36.8400  21.2400  34.1800	C.3   	  3	 3LIG3    0.1151
     85  O		  35.7800  21.9200  33.5100	O.3   	  3	 3LIG3   -0.4894
     86  C		  35.6300  23.2600  33.8200	C.ar  	  3	 3LIG3    0.1206
     87  C		  35.0000  24.0800  32.8700	C.ar  	  3	 3LIG3   -0.0197
     88  C		  34.6300  25.4000  33.2000	C.ar  	  3	 3LIG3   -0.0543
     89  C		  34.8900  25.9400  34.4800	C.ar  	  3	 3LIG3   -0.0372
     90  C		  35.4300  25.0700  35.4600	C.ar  	  3	 3LIG3   -0.0543
     91  C		  35.8000  23.7500  35.1400	C.ar  	  3	 3LIG3   -0.0197
     92  C		  35.0400  27.4600  34.6400	C.3   	  3	 3LIG3    0.0151
     93  C		  36.2400  27.9200  33.7800	C.3   	  3	 3LIG3   -0.0517
     94  C		  35.3400  27.9000  36.0900	C.3   	  3	 3LIG3   -0.0517
     95  C		  33.7100  28.1000  34.2100	C.ar  	  3	 3LIG3   -0.0372
     96  C		  32.5200  27.7300  34.8800	C.ar  	  3	 3LIG3   -0.0543
     97  C		  31.4000  28.5800  34.9200	C.ar  	  3	 3LIG3   -0.0197
     98  C		  31.4300  29.8300  34.2600	C.ar  	  3	 3LIG3    0.1206
     99  C		  32.5900  30.1900  33.5400	C.ar  	  3	 3LIG3   -0.0197
    100  C		  33.7100  29.3300  33.5000	C.ar  	  3	 3LIG3   -0.0543
    101  O		  30.3200  30.6400  34.3800	O.3   	  3	 3LIG3   -0.4894
    102  C		  30.4600  32.0200  34.0800	C.3   	  3	 3LIG3    0.1151
    103  C		  29.1500  32.7400  34.4100	C.3   	  3	 3LIG3    0.0864
    104  C		  28.7800  32.6800  35.9000	C.3   	  3	 3LIG3   -0.0357
    105  O		  29.2600  34.1000  34.0300	O.3   	  3	 3LIG3   -0.3887
    106  C		   5.7300  18.1800  27.7600	C.3   	  4	 4LIG4   -0.0357
    107  C		   5.6100  16.7500  28.3000	C.3   	  4	 4LIG4    0.0864
    108  O		   4.5000  16.1200  27.6900	O.3   	  4	 4LIG4   -0.3887
    109  C		   6.8600  15.8900  28.0500	C.3   	  4	 4LIG4    0.1151
    110  O		   7.9700  16.4800  28.7300	O.3   	  4	 4LIG4   -0.4894
    111  C		   9.2100  15.9200  28.5400	C.ar  	  4	 4LIG4    0.1206
    112  C		  10.3300  16.7000  28.8800	C.ar  	  4	 4LIG4   -0.0197
    113  C		  11.6400  16.2300  28.6600	C.ar  	  4	 4LIG4   -0.0543
    114  C		  11.8700  14.9600  28.0800	C.ar  	  4	 4LIG4   -0.0372
    115  C		  10.7400  14.1500  27.7900	C.ar  	  4	 4LIG4   -0.0543
    116  C		   9.4300  14.6300  28.0000	C.ar  	  4	 4LIG4   -0.0197
    117  C		  13.2000  14.7000  27.3600	C.3   	  4	 4LIG4    0.0151
    118  C		  13.2900  15.6500  26.1400	C.3   	  4	 4LIG4   -0.0517
    119  C		  13.3200  13.2600  26.8000	C.3   	  4	 4LIG4   -0.0517
    120  C		  14.3300  14.9100  28.3800	C.ar  	  4	 4LIG4   -0.0372
    121  C		  14.3400  14.1400  29.5700	C.ar  	  4	 4LIG4   -0.0543
    122  C		  15.5300  13.9200  30.2900	C.ar  	  4	 4LIG4   -0.0197
    123  C		  16.7500  14.4800  29.8500	C.ar  	  4	 4LIG4    0.1206
    124  C		  16.7400  15.2900  28.6900	C.ar  	  4	 4LIG4   -0.0197
    125  C		  15.5500  15.5200  27.9800	C.ar  	  4	 4LIG4   -0.0543
    126  O		  17.8800  14.1700  30.5700	O.3   	  4	 4LIG4   -0.4894
    127  C		  19.1500  14.3900  29.9500	C.3   	  4	 4LIG4    0.1151
    128  C		  20.2600  13.8700  30.8800	C.3   	  4	 4LIG4    0.0864
    129  C		  20.1700  12.3600  31.1300	C.3   	  4	 4LIG4   -0.0357
    130  O		  21.5100  14.1700  30.3100	O.3   	  4	 4LIG4   -0.3887
@<TRIPOS>BOND
      1    28    29    1
      2    28    27    1
      3    29    30    1
      4    26    27    1
      5    27    32    1
      6    71    72    1
      7    71    70    1
      8    72    67    1
      9    67    66    1
     10    67    68    1
     11    30    33    1
     12    30    31    1
     13    73    70    1
     14    73    74    1
     15    33    34    1
     16    70    69    1
     17    69    68    1
     18    32    31    1
     19    75    74    1
     20    75    76    1
     21    79    74    1
     22    79    78    1
     23    34    35    1
     24    34    39    1
     25    76    77    1
     26    35    36    1
     27    78    77    1
     28    36    37    1
     29    39    38    1
     30    37    38    1
     31    37    40    1
     32    77    80    1
     33    64    63    1
     34    65    63    1
     35    63    62    1
     36    62    61    1
     37    61    58    1
     38    58    57   ar
     39    58    59   ar
     40    57    56   ar
     41    59    60   ar
     42    56    55   ar
     43    60    55   ar
     44    55    52    1
     45   118   117    1
     46    54    52    1
     47   119   117    1
     48    52    49    1
     49    52    53    1
     50   117   114    1
     51   117   120    1
     52    49    50   ar
     53    49    48   ar
     54   108   107    1
     55     3     2    1
     56   106   107    1
     57   115   116   ar
     58   115   114   ar
     59    50    51   ar
     60   116   111   ar
     61   109   107    1
     62   109   110    1
     63   125   120   ar
     64   125   124   ar
     65   114   113   ar
     66    48    47   ar
     67   120   121   ar
     68   111   110    1
     69   111   112   ar
     70   113   112   ar
     71   124   123   ar
     72     1     2    1
     73    51    46   ar
     74     2     4    1
     75    47    46   ar
     76     4     5    1
     77    46    45    1
     78   121   122   ar
     79   123   122   ar
     80   123   126    1
     81   127   126    1
     82   127   128    1
     83    11    10   ar
     84    11     6   ar
     85     5     6    1
     86    45    44    1
     87    10     9   ar
     88    13    12    1
     89   130   128    1
     90    14    12    1
     91     6     7   ar
     92   128   129    1
     93    44    42    1
     94     9    12    1
     95     9     8   ar
     96    12    15    1
     97     7     8   ar
     98    81    82    1
     99    42    43    1
    100    42    41    1
    101    15    20   ar
    102    15    16   ar
    103    87    88   ar
    104    87    86   ar
    105    20    19   ar
    106    88    89   ar
    107    82    83    1
    108    82    84    1
    109    85    86    1
    110    85    84    1
    111    16    17   ar
    112    99   100   ar
    113    99    98   ar
    114   100    95   ar
    115    93    92    1
    116    86    91   ar
    117   102   101    1
    118   102   103    1
    119    19    18   ar
    120   105   103    1
    121    98   101    1
    122    98    97   ar
    123    95    92    1
    124    95    96   ar
    125    89    92    1
    126    89    90   ar
    127   103   104    1
    128    92    94    1
    129    17    18   ar
    130    18    21    1
    131    97    96   ar
    132    91    90   ar
    133    21    22    1
    134    22    23    1
    135    24    23    1
    136    23    25    1
    137    62    40    1

